/home/anna/Documents/benchmark/test_fegrow/inputs/ligand.pdb
  -Sire-202200300

 32 33  0  0  0  0  0  0  0  0999 V2000
   -6.7912   -6.0372  -15.4773 C   0  0  0  0  0  0  0  0  0  0  0  0
   -7.3873   -4.7671  -15.5753 C   0  0  0  0  0  0  0  0  0  0  0  0
   -6.5971   -3.6383  -15.8243 C   0  0  0  0  0  0  0  0  0  0  0  0
   -8.7707   -9.1869  -16.0529 C   0  0  0  0  0  0  0  0  0  0  0  0
   -7.6341   -7.1858  -15.1426 C   0  0  0  0  0  0  0  0  0  0  0  0
   -9.5612   -9.5174  -14.9659 C   0  0  0  0  0  0  0  0  0  0  0  0
  -10.4284  -10.6090  -15.0865 C   0  0  0  0  0  0  0  0  0  0  0  0
   -5.4009   -6.1659  -15.6944 C   0  0  0  0  0  0  0  0  0  0  0  0
   -5.2152   -3.7565  -15.9986 C   0  0  0  0  0  0  0  0  0  0  0  0
   -4.6231   -5.0221  -15.9384 C   0  0  0  0  0  0  0  0  0  0  0  0
   -9.1232   -4.5798  -15.4225 Cl  0  0  0  0  0  0  0  0  0  0  0  0
   -8.1577   -7.2423  -14.0362 O   0  0  0  0  0  0  0  0  0  0  0  0
   -7.8974   -8.1217  -16.1173 N   0  0  0  0  0  0  0  0  0  0  0  0
  -10.5100  -11.3674  -16.1969 N   0  0  0  0  0  0  0  0  0  0  0  0
   -9.7162  -11.0516  -17.2183 C   0  0  0  0  0  0  0  0  0  0  0  0
   -8.8546   -9.9675  -17.1824 C   0  0  0  0  0  0  0  0  0  0  0  0
   -9.8319  -11.8472  -18.3298 N   0  0  0  0  0  0  0  0  0  0  0  0
   -8.8844  -11.9476  -19.3158 C   0  0  0  0  0  0  0  0  0  0  0  0
   -7.8359  -11.3292  -19.2339 O   0  0  0  0  0  0  0  0  0  0  0  0
   -4.6015   -7.7219  -15.6598 Cl  0  0  0  0  0  0  0  0  0  0  0  0
   -7.0676   -2.6604  -15.8789 H   0  0  0  0  0  0  0  0  0  0  0  0
   -9.5205   -8.9329  -14.0514 H   0  0  0  0  0  0  0  0  0  0  0  0
  -11.0662  -10.8421  -14.2372 H   0  0  0  0  0  0  0  0  0  0  0  0
   -4.6106   -2.8695  -16.1903 H   0  0  0  0  0  0  0  0  0  0  0  0
   -3.5471   -5.1126  -16.0787 H   0  0  0  0  0  0  0  0  0  0  0  0
   -7.4575   -7.9662  -17.0173 H   0  0  0  0  0  0  0  0  0  0  0  0
   -8.2641   -9.7196  -18.0538 H   0  0  0  0  0  0  0  0  0  0  0  0
  -10.6744  -12.4028  -18.4105 H   0  0  0  0  0  0  0  0  0  0  0  0
   -9.1109  -12.8759  -20.5065 C   0  0  0  0  0  0  0  0  0  0  0  0
   -9.9905  -12.5620  -21.0683 H   0  0  0  0  0  0  0  0  0  0  0  0
   -8.2472  -12.8675  -21.1752 H   0  0  0  0  0  0  0  0  0  0  0  0
   -9.2682  -13.9036  -20.1884 H   0  0  0  0  0  0  0  0  0  0  0  0
  1  5  1  0         
  1  8  1  0         
  1  2  2  0         
  2  3  1  0         
  2 11  1  0         
  3 21  1  0         
  3  9  2  0         
  4 13  1  0         
  4 16  1  0         
  4  6  2  0         
  5 13  1  0         
  5 12  2  0         
  6 22  1  0         
  6  7  1  0         
  7 23  1  0         
  7 14  2  0         
  8 20  1  0         
  8 10  2  0         
  9 24  1  0         
  9 10  1  0         
 10 25  1  0         
 13 26  1  0         
 14 15  1  0         
 15 17  1  0         
 15 16  2  0         
 16 27  1  0         
 17 18  1  0         
 17 28  1  0         
 18 19  2  0         
 18 29  1  0         
 29 30  1  0         
 29 32  1  0         
 29 31  1  0         
M  END

$$$$
