/home/anna/Documents/benchmark/test_fegrow/inputs/ligand.pdb
  -Sire-202200300

 35 36  0  0  0  0  0  0  0  0999 V2000
   -6.7911   -6.0371  -15.4773 C   0  0  0  0  0  0  0  0  0  0  0  0
   -7.3872   -4.7672  -15.5754 C   0  0  0  0  0  0  0  0  0  0  0  0
   -6.5972   -3.6383  -15.8242 C   0  0  0  0  0  0  0  0  0  0  0  0
   -8.7706   -9.1864  -16.0524 C   0  0  0  0  0  0  0  0  0  0  0  0
   -7.6340   -7.1854  -15.1425 C   0  0  0  0  0  0  0  0  0  0  0  0
   -9.5610   -9.5171  -14.9654 C   0  0  0  0  0  0  0  0  0  0  0  0
  -10.4285  -10.6086  -15.0856 C   0  0  0  0  0  0  0  0  0  0  0  0
   -5.4010   -6.1660  -15.6944 C   0  0  0  0  0  0  0  0  0  0  0  0
   -5.2152   -3.7565  -15.9986 C   0  0  0  0  0  0  0  0  0  0  0  0
   -4.6232   -5.0222  -15.9384 C   0  0  0  0  0  0  0  0  0  0  0  0
   -9.1229   -4.5799  -15.4227 Cl  0  0  0  0  0  0  0  0  0  0  0  0
   -8.1575   -7.2420  -14.0362 O   0  0  0  0  0  0  0  0  0  0  0  0
   -7.8974   -8.1214  -16.1172 N   0  0  0  0  0  0  0  0  0  0  0  0
  -10.5103  -11.3670  -16.1958 N   0  0  0  0  0  0  0  0  0  0  0  0
   -9.7167  -11.0508  -17.2170 C   0  0  0  0  0  0  0  0  0  0  0  0
   -8.8547   -9.9668  -17.1816 C   0  0  0  0  0  0  0  0  0  0  0  0
   -9.8333  -11.8468  -18.3283 N   0  0  0  0  0  0  0  0  0  0  0  0
   -8.8860  -11.9502  -19.3160 C   0  0  0  0  0  0  0  0  0  0  0  0
   -7.8431  -11.3209  -19.2153 O   0  0  0  0  0  0  0  0  0  0  0  0
   -4.6014   -7.7217  -15.6599 Cl  0  0  0  0  0  0  0  0  0  0  0  0
   -7.0674   -2.6604  -15.8789 H   0  0  0  0  0  0  0  0  0  0  0  0
   -9.5205   -8.9329  -14.0509 H   0  0  0  0  0  0  0  0  0  0  0  0
  -11.0665  -10.8420  -14.2367 H   0  0  0  0  0  0  0  0  0  0  0  0
   -4.6107   -2.8696  -16.1903 H   0  0  0  0  0  0  0  0  0  0  0  0
   -3.5472   -5.1125  -16.0787 H   0  0  0  0  0  0  0  0  0  0  0  0
   -7.4576   -7.9662  -17.0171 H   0  0  0  0  0  0  0  0  0  0  0  0
   -8.2647   -9.7188  -18.0529 H   0  0  0  0  0  0  0  0  0  0  0  0
  -10.6761  -12.4017  -18.4071 H   0  0  0  0  0  0  0  0  0  0  0  0
   -9.1278  -12.8923  -20.5104 C   0  0  0  0  0  0  0  0  0  0  0  0
   -7.9786  -12.9202  -21.5298 C   0  0  0  0  0  0  0  0  0  0  0  0
  -10.0476  -12.5948  -21.0157 H   0  0  0  0  0  0  0  0  0  0  0  0
   -9.2832  -13.9102  -20.1626 H   0  0  0  0  0  0  0  0  0  0  0  0
   -7.0484  -13.2496  -21.0574 H   0  0  0  0  0  0  0  0  0  0  0  0
   -8.2065  -13.6055  -22.3537 H   0  0  0  0  0  0  0  0  0  0  0  0
   -7.8182  -11.9231  -21.9456 H   0  0  0  0  0  0  0  0  0  0  0  0
  1  5  1  0         
  1  8  1  0         
  1  2  2  0         
  2  3  1  0         
  2 11  1  0         
  3 21  1  0         
  3  9  2  0         
  4 13  1  0         
  4 16  1  0         
  4  6  2  0         
  5 13  1  0         
  5 12  2  0         
  6 22  1  0         
  6  7  1  0         
  7 23  1  0         
  7 14  2  0         
  8 20  1  0         
  8 10  2  0         
  9 24  1  0         
  9 10  1  0         
 10 25  1  0         
 13 26  1  0         
 14 15  1  0         
 15 17  1  0         
 15 16  2  0         
 16 27  1  0         
 17 18  1  0         
 17 28  1  0         
 18 19  2  0         
 18 29  1  0         
 29 30  1  0         
 29 32  1  0         
 29 31  1  0         
 30 34  1  0         
 30 33  1  0         
 30 35  1  0         
M  END

$$$$
