/home/anna/Documents/benchmark/test_fegrow/inputs/ligand.pdb
  -Sire-202200300

 34 35  0  0  0  0  0  0  0  0999 V2000
   -6.7947   -6.0313  -15.4749 C   0  0  0  0  0  0  0  0  0  0  0  0
   -7.3898   -4.7628  -15.5660 C   0  0  0  0  0  0  0  0  0  0  0  0
   -6.5993   -3.6410  -15.8228 C   0  0  0  0  0  0  0  0  0  0  0  0
   -8.7571   -9.1919  -16.0583 C   0  0  0  0  0  0  0  0  0  0  0  0
   -7.6347   -7.1906  -15.1511 C   0  0  0  0  0  0  0  0  0  0  0  0
   -9.5555   -9.5104  -14.9824 C   0  0  0  0  0  0  0  0  0  0  0  0
  -10.4272  -10.5944  -15.0806 C   0  0  0  0  0  0  0  0  0  0  0  0
   -5.4080   -6.1616  -15.6906 C   0  0  0  0  0  0  0  0  0  0  0  0
   -5.2196   -3.7602  -15.9983 C   0  0  0  0  0  0  0  0  0  0  0  0
   -4.6297   -5.0239  -15.9387 C   0  0  0  0  0  0  0  0  0  0  0  0
   -9.1228   -4.5704  -15.3959 Cl  0  0  0  0  0  0  0  0  0  0  0  0
   -8.1707   -7.2717  -14.0534 O   0  0  0  0  0  0  0  0  0  0  0  0
   -7.8770   -8.1364  -16.1195 N   0  0  0  0  0  0  0  0  0  0  0  0
  -10.5104  -11.3494  -16.1833 N   0  0  0  0  0  0  0  0  0  0  0  0
   -9.7322  -11.0267  -17.2055 C   0  0  0  0  0  0  0  0  0  0  0  0
   -8.8581   -9.9586  -17.1809 C   0  0  0  0  0  0  0  0  0  0  0  0
   -9.8713  -11.8252  -18.3017 N   0  0  0  0  0  0  0  0  0  0  0  0
   -8.9044  -11.9386  -19.2809 C   0  0  0  0  0  0  0  0  0  0  0  0
   -7.8802  -11.2897  -19.1125 O   0  0  0  0  0  0  0  0  0  0  0  0
   -4.6328   -7.7280  -15.6471 Cl  0  0  0  0  0  0  0  0  0  0  0  0
   -7.0741   -2.6697  -15.8849 H   0  0  0  0  0  0  0  0  0  0  0  0
   -9.5184   -8.9284  -14.0790 H   0  0  0  0  0  0  0  0  0  0  0  0
  -11.0624  -10.8516  -14.2364 H   0  0  0  0  0  0  0  0  0  0  0  0
   -4.6118   -2.8776  -16.1810 H   0  0  0  0  0  0  0  0  0  0  0  0
   -3.5586   -5.1267  -16.0807 H   0  0  0  0  0  0  0  0  0  0  0  0
   -7.4515   -7.9763  -17.0211 H   0  0  0  0  0  0  0  0  0  0  0  0
   -8.2635   -9.7058  -18.0409 H   0  0  0  0  0  0  0  0  0  0  0  0
  -10.7091  -12.3918  -18.3336 H   0  0  0  0  0  0  0  0  0  0  0  0
   -9.1058  -12.8565  -20.5336 C   0  0  0  0  0  0  0  0  0  0  0  0
   -7.9604  -13.0458  -21.5008 N   0  0  0  0  0  0  0  0  0  0  0  0
   -9.3970  -13.8402  -20.1608 H   0  0  0  0  0  0  0  0  0  0  0  0
   -9.9793  -12.4725  -21.0700 H   0  0  0  0  0  0  0  0  0  0  0  0
   -8.1580  -13.7638  -22.1988 H   0  0  0  0  0  0  0  0  0  0  0  0
   -7.6982  -12.1712  -21.9649 H   0  0  0  0  0  0  0  0  0  0  0  0
  1  5  1  0         
  1  8  1  0         
  1  2  2  0         
  2  3  1  0         
  2 11  1  0         
  3 21  1  0         
  3  9  2  0         
  4 13  1  0         
  4 16  1  0         
  4  6  2  0         
  5 13  1  0         
  5 12  2  0         
  6 22  1  0         
  6  7  1  0         
  7 23  1  0         
  7 14  2  0         
  8 20  1  0         
  8 10  2  0         
  9 24  1  0         
  9 10  1  0         
 10 25  1  0         
 13 26  1  0         
 14 15  1  0         
 15 17  1  0         
 15 16  2  0         
 16 27  1  0         
 17 18  1  0         
 17 28  1  0         
 18 19  2  0         
 18 29  1  0         
 29 30  1  0         
 29 32  1  0         
 29 31  1  0         
 30 34  1  0         
 30 33  1  0         
M  END

$$$$
