/home/anna/Documents/benchmark/test_fegrow/inputs/ligand.pdb
  -Sire-202200300

 38 39  0  0  0  0  0  0  0  0999 V2000
   -6.8212   -6.0387  -15.4647 C   0  0  0  0  0  0  0  0  0  0  0  0
   -7.4020   -4.7652  -15.5441 C   0  0  0  0  0  0  0  0  0  0  0  0
   -6.6111   -3.6463  -15.8159 C   0  0  0  0  0  0  0  0  0  0  0  0
   -8.7236   -9.2028  -16.1003 C   0  0  0  0  0  0  0  0  0  0  0  0
   -7.6519   -7.2035  -15.1712 C   0  0  0  0  0  0  0  0  0  0  0  0
   -9.5370   -9.5143  -15.0230 C   0  0  0  0  0  0  0  0  0  0  0  0
  -10.4088  -10.6050  -15.1310 C   0  0  0  0  0  0  0  0  0  0  0  0
   -5.4416   -6.1761  -15.6795 C   0  0  0  0  0  0  0  0  0  0  0  0
   -5.2330   -3.7765  -15.9899 C   0  0  0  0  0  0  0  0  0  0  0  0
   -4.6543   -5.0455  -15.9300 C   0  0  0  0  0  0  0  0  0  0  0  0
   -9.1190   -4.5530  -15.3303 Cl  0  0  0  0  0  0  0  0  0  0  0  0
   -8.1941   -7.3037  -14.0791 O   0  0  0  0  0  0  0  0  0  0  0  0
   -7.8332   -8.1517  -16.1511 N   0  0  0  0  0  0  0  0  0  0  0  0
  -10.5006  -11.3502  -16.2421 N   0  0  0  0  0  0  0  0  0  0  0  0
   -9.7155  -11.0226  -17.2566 C   0  0  0  0  0  0  0  0  0  0  0  0
   -8.8219   -9.9672  -17.2286 C   0  0  0  0  0  0  0  0  0  0  0  0
   -9.8674  -11.8226  -18.3447 N   0  0  0  0  0  0  0  0  0  0  0  0
   -8.8756  -11.9974  -19.2816 C   0  0  0  0  0  0  0  0  0  0  0  0
   -7.8375  -11.3654  -19.1690 O   0  0  0  0  0  0  0  0  0  0  0  0
   -4.6829   -7.7445  -15.6276 Cl  0  0  0  0  0  0  0  0  0  0  0  0
   -7.0802   -2.6715  -15.8875 H   0  0  0  0  0  0  0  0  0  0  0  0
   -9.5160   -8.9207  -14.1184 H   0  0  0  0  0  0  0  0  0  0  0  0
  -11.0415  -10.8642  -14.2868 H   0  0  0  0  0  0  0  0  0  0  0  0
   -4.6204   -2.8973  -16.1738 H   0  0  0  0  0  0  0  0  0  0  0  0
   -3.5852   -5.1508  -16.0820 H   0  0  0  0  0  0  0  0  0  0  0  0
   -7.3926   -7.9705  -17.0465 H   0  0  0  0  0  0  0  0  0  0  0  0
   -8.2204   -9.7266  -18.0910 H   0  0  0  0  0  0  0  0  0  0  0  0
  -10.6731  -12.4341  -18.3392 H   0  0  0  0  0  0  0  0  0  0  0  0
   -9.0499  -12.9868  -20.4474 C   0  0  0  0  0  0  0  0  0  0  0  0
   -9.1251  -12.2735  -21.8031 C   0  0  0  0  0  0  0  0  0  0  0  0
   -7.8913  -13.9884  -20.6268 C   0  0  0  0  0  0  0  0  0  0  0  0
   -9.9801  -13.5344  -20.2729 H   0  0  0  0  0  0  0  0  0  0  0  0
   -8.2609  -11.6197  -21.9659 H   0  0  0  0  0  0  0  0  0  0  0  0
  -10.0226  -11.6849  -21.8882 H   0  0  0  0  0  0  0  0  0  0  0  0
   -9.1613  -13.0107  -22.6050 H   0  0  0  0  0  0  0  0  0  0  0  0
   -8.1176  -14.6518  -21.4670 H   0  0  0  0  0  0  0  0  0  0  0  0
   -6.9548  -13.4697  -20.8549 H   0  0  0  0  0  0  0  0  0  0  0  0
   -7.7354  -14.6079  -19.7457 H   0  0  0  0  0  0  0  0  0  0  0  0
  1  5  1  0         
  1  8  1  0         
  1  2  2  0         
  2  3  1  0         
  2 11  1  0         
  3 21  1  0         
  3  9  2  0         
  4 13  1  0         
  4 16  1  0         
  4  6  2  0         
  5 13  1  0         
  5 12  2  0         
  6 22  1  0         
  6  7  1  0         
  7 23  1  0         
  7 14  2  0         
  8 20  1  0         
  8 10  2  0         
  9 24  1  0         
  9 10  1  0         
 10 25  1  0         
 13 26  1  0         
 14 15  1  0         
 15 17  1  0         
 15 16  2  0         
 16 27  1  0         
 17 18  1  0         
 17 28  1  0         
 18 19  2  0         
 18 29  1  0         
 29 30  1  0         
 29 32  1  0         
 29 31  1  0         
 30 34  1  0         
 30 33  1  0         
 30 35  1  0         
 31 38  1  0         
 31 37  1  0         
 31 36  1  0         
M  END

$$$$
