/home/anna/Documents/benchmark/test_fegrow/inputs/ligand.pdb
  -Sire-202200300

 42 44  0  0  0  0  0  0  0  0999 V2000
   -6.8580   -6.0505  -15.4634 C   0  0  0  0  0  0  0  0  0  0  0  0
   -7.4430   -4.7724  -15.5016 C   0  0  0  0  0  0  0  0  0  0  0  0
   -6.6392   -3.6633  -15.7808 C   0  0  0  0  0  0  0  0  0  0  0  0
   -8.6880   -9.2204  -16.1824 C   0  0  0  0  0  0  0  0  0  0  0  0
   -7.6842   -7.2130  -15.2059 C   0  0  0  0  0  0  0  0  0  0  0  0
   -9.5057   -9.5216  -15.1167 C   0  0  0  0  0  0  0  0  0  0  0  0
  -10.3845  -10.5926  -15.2143 C   0  0  0  0  0  0  0  0  0  0  0  0
   -5.4792   -6.2092  -15.6785 C   0  0  0  0  0  0  0  0  0  0  0  0
   -5.2634   -3.8133  -15.9817 C   0  0  0  0  0  0  0  0  0  0  0  0
   -4.6868   -5.0851  -15.9210 C   0  0  0  0  0  0  0  0  0  0  0  0
   -9.1614   -4.5440  -15.2232 Cl  0  0  0  0  0  0  0  0  0  0  0  0
   -8.2684   -7.3163  -14.1388 O   0  0  0  0  0  0  0  0  0  0  0  0
   -7.8160   -8.1625  -16.1936 N   0  0  0  0  0  0  0  0  0  0  0  0
  -10.4706  -11.3533  -16.3120 N   0  0  0  0  0  0  0  0  0  0  0  0
   -9.6735  -11.0536  -17.3300 C   0  0  0  0  0  0  0  0  0  0  0  0
   -8.7742  -10.0031  -17.3041 C   0  0  0  0  0  0  0  0  0  0  0  0
   -9.8062  -11.8766  -18.4085 N   0  0  0  0  0  0  0  0  0  0  0  0
   -8.7884  -12.1243  -19.2950 C   0  0  0  0  0  0  0  0  0  0  0  0
   -7.7287  -11.5364  -19.1551 O   0  0  0  0  0  0  0  0  0  0  0  0
   -4.7316   -7.7919  -15.6280 Cl  0  0  0  0  0  0  0  0  0  0  0  0
   -7.0865   -2.6768  -15.8404 H   0  0  0  0  0  0  0  0  0  0  0  0
   -9.4768   -8.9370  -14.2153 H   0  0  0  0  0  0  0  0  0  0  0  0
  -11.0180  -10.8269  -14.3634 H   0  0  0  0  0  0  0  0  0  0  0  0
   -4.6432   -2.9426  -16.1813 H   0  0  0  0  0  0  0  0  0  0  0  0
   -3.6173   -5.2065  -16.0633 H   0  0  0  0  0  0  0  0  0  0  0  0
   -7.3102   -8.0012  -17.0530 H   0  0  0  0  0  0  0  0  0  0  0  0
   -8.1628   -9.7977  -18.1682 H   0  0  0  0  0  0  0  0  0  0  0  0
  -10.6012  -12.4997  -18.4056 H   0  0  0  0  0  0  0  0  0  0  0  0
   -8.9808  -13.1981  -20.3871 C   0  0  0  0  0  0  0  0  0  0  0  0
   -8.1090  -12.0392  -22.2974 C   0  0  0  0  0  0  0  0  0  0  0  0
   -9.3991  -12.5774  -21.7049 C   0  0  0  0  0  0  0  0  0  0  0  0
   -7.6930  -13.9207  -20.8055 C   0  0  0  0  0  0  0  0  0  0  0  0
   -7.0281  -13.0163  -21.8432 C   0  0  0  0  0  0  0  0  0  0  0  0
   -9.7479  -13.8994  -20.0555 H   0  0  0  0  0  0  0  0  0  0  0  0
   -8.1789  -11.9656  -23.3877 H   0  0  0  0  0  0  0  0  0  0  0  0
   -7.8854  -11.0475  -21.8920 H   0  0  0  0  0  0  0  0  0  0  0  0
  -10.1289  -11.7953  -21.5578 H   0  0  0  0  0  0  0  0  0  0  0  0
   -9.8258  -13.3438  -22.3634 H   0  0  0  0  0  0  0  0  0  0  0  0
   -7.9662  -14.8662  -21.2861 H   0  0  0  0  0  0  0  0  0  0  0  0
   -7.0255  -14.1386  -19.9664 H   0  0  0  0  0  0  0  0  0  0  0  0
   -6.1754  -12.4805  -21.4077 H   0  0  0  0  0  0  0  0  0  0  0  0
   -6.6703  -13.6119  -22.6876 H   0  0  0  0  0  0  0  0  0  0  0  0
  1  5  1  0         
  1  8  1  0         
  1  2  2  0         
  2  3  1  0         
  2 11  1  0         
  3 21  1  0         
  3  9  2  0         
  4 13  1  0         
  4 16  1  0         
  4  6  2  0         
  5 13  1  0         
  5 12  2  0         
  6 22  1  0         
  6  7  1  0         
  7 23  1  0         
  7 14  2  0         
  8 20  1  0         
  8 10  2  0         
  9 24  1  0         
  9 10  1  0         
 10 25  1  0         
 13 26  1  0         
 14 15  1  0         
 15 17  1  0         
 15 16  2  0         
 16 27  1  0         
 17 18  1  0         
 17 28  1  0         
 18 19  2  0         
 18 29  1  0         
 29 34  1  0         
 29 32  1  0         
 29 31  1  0         
 30 33  1  0         
 30 36  1  0         
 30 35  1  0         
 30 31  1  0         
 31 38  1  0         
 31 37  1  0         
 32 40  1  0         
 32 39  1  0         
 32 33  1  0         
 33 42  1  0         
 33 41  1  0         
M  END

$$$$
