/home/anna/Documents/benchmark/test_fegrow/inputs/ligand.pdb
  -Sire-202200300

 33 34  0  0  0  0  0  0  0  0999 V2000
   -6.8293   -6.0399  -15.4629 C   0  0  0  0  0  0  0  0  0  0  0  0
   -7.4084   -4.7644  -15.5351 C   0  0  0  0  0  0  0  0  0  0  0  0
   -6.6158   -3.6486  -15.8107 C   0  0  0  0  0  0  0  0  0  0  0  0
   -8.7172   -9.2012  -16.1074 C   0  0  0  0  0  0  0  0  0  0  0  0
   -7.6586   -7.2037  -15.1733 C   0  0  0  0  0  0  0  0  0  0  0  0
   -9.5278   -9.5071  -15.0288 C   0  0  0  0  0  0  0  0  0  0  0  0
  -10.4011  -10.5924  -15.1433 C   0  0  0  0  0  0  0  0  0  0  0  0
   -5.4511   -6.1827  -15.6765 C   0  0  0  0  0  0  0  0  0  0  0  0
   -5.2399   -3.7838  -15.9869 C   0  0  0  0  0  0  0  0  0  0  0  0
   -4.6646   -5.0534  -15.9264 C   0  0  0  0  0  0  0  0  0  0  0  0
   -9.1237   -4.5485  -15.3026 Cl  0  0  0  0  0  0  0  0  0  0  0  0
   -8.2062   -7.3035  -14.0834 O   0  0  0  0  0  0  0  0  0  0  0  0
   -7.8227   -8.1554  -16.1544 N   0  0  0  0  0  0  0  0  0  0  0  0
  -10.5047  -11.3327  -16.2562 N   0  0  0  0  0  0  0  0  0  0  0  0
   -9.7191  -11.0161  -17.2761 C   0  0  0  0  0  0  0  0  0  0  0  0
   -8.8184   -9.9571  -17.2450 C   0  0  0  0  0  0  0  0  0  0  0  0
   -9.8574  -11.8435  -18.3549 N   0  0  0  0  0  0  0  0  0  0  0  0
   -8.8625  -12.0055  -19.2955 C   0  0  0  0  0  0  0  0  0  0  0  0
   -7.8488  -11.3302  -19.1927 O   0  0  0  0  0  0  0  0  0  0  0  0
   -4.6966   -7.7554  -15.6222 Cl  0  0  0  0  0  0  0  0  0  0  0  0
   -7.0808   -2.6720  -15.8842 H   0  0  0  0  0  0  0  0  0  0  0  0
   -9.5066   -8.9128  -14.1231 H   0  0  0  0  0  0  0  0  0  0  0  0
  -11.0324  -10.8573  -14.3016 H   0  0  0  0  0  0  0  0  0  0  0  0
   -4.6258   -2.9073  -16.1733 H   0  0  0  0  0  0  0  0  0  0  0  0
   -3.5973   -5.1615  -16.0801 H   0  0  0  0  0  0  0  0  0  0  0  0
   -7.3748   -7.9794  -17.0476 H   0  0  0  0  0  0  0  0  0  0  0  0
   -8.2015   -9.6924  -18.0949 H   0  0  0  0  0  0  0  0  0  0  0  0
  -10.6726  -12.4449  -18.3653 H   0  0  0  0  0  0  0  0  0  0  0  0
   -9.0806  -12.8208  -20.5873 C   0  0  0  0  0  0  0  0  0  0  0  0
   -8.6187  -14.1926  -20.6402 O   0  0  0  0  0  0  0  0  0  0  0  0
   -8.5577  -12.2572  -21.3673 H   0  0  0  0  0  0  0  0  0  0  0  0
  -10.1517  -12.8310  -20.8051 H   0  0  0  0  0  0  0  0  0  0  0  0
   -8.8386  -14.5765  -21.5112 H   0  0  0  0  0  0  0  0  0  0  0  0
  1  5  1  0         
  1  8  1  0         
  1  2  2  0         
  2  3  1  0         
  2 11  1  0         
  3 21  1  0         
  3  9  2  0         
  4 13  1  0         
  4 16  1  0         
  4  6  2  0         
  5 13  1  0         
  5 12  2  0         
  6 22  1  0         
  6  7  1  0         
  7 23  1  0         
  7 14  2  0         
  8 20  1  0         
  8 10  2  0         
  9 24  1  0         
  9 10  1  0         
 10 25  1  0         
 13 26  1  0         
 14 15  1  0         
 15 17  1  0         
 15 16  2  0         
 16 27  1  0         
 17 18  1  0         
 17 28  1  0         
 18 19  2  0         
 18 29  1  0         
 29 30  1  0         
 29 32  1  0         
 29 31  1  0         
 30 33  1  0         
M  END

$$$$
