/home/anna/Documents/benchmark/test_fegrow/inputs/ligand.pdb
     RDKit          3D

 40 42  0  0  0  0  0  0  0  0999 V2000
   -6.7972   -5.8886  -15.2584 C   0  0  0  0  0  0  0  0  0  0  0  0
   -7.3384   -4.5954  -15.2716 C   0  0  0  0  0  0  0  0  0  0  0  0
   -6.5270   -3.5140  -15.6102 C   0  0  0  0  0  0  0  0  0  0  0  0
   -8.6763   -9.0386  -15.8378 C   0  0  0  0  0  0  0  0  0  0  0  0
   -7.6574   -7.0169  -14.9289 C   0  0  0  0  0  0  0  0  0  0  0  0
   -9.5117   -9.3274  -14.7784 C   0  0  0  0  0  0  0  0  0  0  0  0
  -10.4447  -10.3517  -14.9202 C   0  0  0  0  0  0  0  0  0  0  0  0
   -5.4461   -6.0863  -15.5949 C   0  0  0  0  0  0  0  0  0  0  0  0
   -5.1800   -3.6973  -15.9270 C   0  0  0  0  0  0  0  0  0  0  0  0
   -4.6431   -4.9862  -15.9112 C   0  0  0  0  0  0  0  0  0  0  0  0
   -9.0303   -4.3211  -14.9114 Cl  0  0  0  0  0  0  0  0  0  0  0  0
   -8.3791   -6.9857  -13.9413 O   0  0  0  0  0  0  0  0  0  0  0  0
   -7.7229   -8.0555  -15.8264 N   0  0  0  0  0  0  0  0  0  0  0  0
  -10.5759  -11.0460  -16.0580 N   0  0  0  0  0  0  0  0  0  0  0  0
   -9.7797  -10.7318  -17.0682 C   0  0  0  0  0  0  0  0  0  0  0  0
   -8.8157   -9.7474  -17.0015 C   0  0  0  0  0  0  0  0  0  0  0  0
   -9.9874  -11.4922  -18.1744 N   0  0  0  0  0  0  0  0  0  0  0  0
   -8.9381  -11.9223  -18.9600 C   0  0  0  0  0  0  0  0  0  0  0  0
   -7.8328  -11.4358  -18.7541 O   0  0  0  0  0  0  0  0  0  0  0  0
   -4.7495   -7.6917  -15.6156 Cl  0  0  0  0  0  0  0  0  0  0  0  0
   -6.9582   -2.5231  -15.6256 H   0  0  0  0  0  0  0  0  0  0  0  0
   -9.4459   -8.7809  -13.8504 H   0  0  0  0  0  0  0  0  0  0  0  0
  -11.0878  -10.6112  -14.0825 H   0  0  0  0  0  0  0  0  0  0  0  0
   -4.5565   -2.8442  -16.1820 H   0  0  0  0  0  0  0  0  0  0  0  0
   -3.5962   -5.1414  -16.1474 H   0  0  0  0  0  0  0  0  0  0  0  0
   -7.2172   -7.9265  -16.6910 H   0  0  0  0  0  0  0  0  0  0  0  0
   -8.1929   -9.5158  -17.8529 H   0  0  0  0  0  0  0  0  0  0  0  0
  -10.8535  -12.0152  -18.1747 H   0  0  0  0  0  0  0  0  0  0  0  0
   -9.1781  -13.0306  -20.0273 C   0  0  0  0  0  0  0  0  0  0  0  0
   -8.0435  -13.8886  -20.3010 O   0  0  0  0  0  0  0  0  0  0  0  0
   -8.0857  -14.3628  -21.6540 C   0  0  0  0  0  0  0  0  0  0  0  0
   -9.0576  -13.4580  -22.4089 C   0  0  0  0  0  0  0  0  0  0  0  0
   -9.5576  -12.4581  -21.3799 C   0  0  0  0  0  0  0  0  0  0  0  0
  -10.0236  -13.6373  -19.6867 H   0  0  0  0  0  0  0  0  0  0  0  0
   -7.0827  -14.3309  -22.0888 H   0  0  0  0  0  0  0  0  0  0  0  0
   -8.4208  -15.4038  -21.6925 H   0  0  0  0  0  0  0  0  0  0  0  0
   -8.5734  -12.9472  -23.2517 H   0  0  0  0  0  0  0  0  0  0  0  0
   -9.8917  -14.0483  -22.8014 H   0  0  0  0  0  0  0  0  0  0  0  0
   -9.0703  -11.4908  -21.5326 H   0  0  0  0  0  0  0  0  0  0  0  0
  -10.6465  -12.3535  -21.4399 H   0  0  0  0  0  0  0  0  0  0  0  0
  1  5  1  0
  2  1  2  0
  2 11  1  0
  3  2  1  0
  3 21  1  0
  4  6  2  0
  5 12  2  0
  6 22  1  0
  7  6  1  0
  7 23  1  0
  8 20  1  0
  8  1  1  0
  9 10  1  0
  9  3  2  0
  9 24  1  0
 10  8  2  0
 10 25  1  0
 13  4  1  0
 13  5  1  0
 13 26  1  0
 14  7  2  0
 15 16  2  0
 15 14  1  0
 16  4  1  0
 16 27  1  0
 17 15  1  0
 17 28  1  0
 18 19  2  0
 18 17  1  0
 30 31  1  0
 31 32  1  0
 32 33  1  0
 29 30  1  0
 29 33  1  0
 29 34  1  0
 31 35  1  0
 31 36  1  0
 32 37  1  0
 32 38  1  0
 33 39  1  0
 33 40  1  0
 18 29  1  0
M  END
$$$$