/home/anna/Documents/benchmark/test_fegrow/inputs/ligand.pdb
     RDKit          3D

 39 41  0  0  0  0  0  0  0  0999 V2000
   -6.8007   -6.0341  -15.4721 C   0  0  0  0  0  0  0  0  0  0  0  0
   -7.3925   -4.7646  -15.5618 C   0  0  0  0  0  0  0  0  0  0  0  0
   -6.6025   -3.6423  -15.8220 C   0  0  0  0  0  0  0  0  0  0  0  0
   -8.7461   -9.1966  -16.0766 C   0  0  0  0  0  0  0  0  0  0  0  0
   -7.6373   -7.1948  -15.1564 C   0  0  0  0  0  0  0  0  0  0  0  0
   -9.5514   -9.5164  -15.0047 C   0  0  0  0  0  0  0  0  0  0  0  0
  -10.4213  -10.6044  -15.1091 C   0  0  0  0  0  0  0  0  0  0  0  0
   -5.4158   -6.1639  -15.6887 C   0  0  0  0  0  0  0  0  0  0  0  0
   -5.2210   -3.7619  -15.9972 C   0  0  0  0  0  0  0  0  0  0  0  0
   -4.6328   -5.0285  -15.9378 C   0  0  0  0  0  0  0  0  0  0  0  0
   -9.1214   -4.5663  -15.3837 Cl  0  0  0  0  0  0  0  0  0  0  0  0
   -8.1759   -7.2842  -14.0619 O   0  0  0  0  0  0  0  0  0  0  0  0
   -7.8675   -8.1434  -16.1270 N   0  0  0  0  0  0  0  0  0  0  0  0
  -10.4967  -11.3582  -16.2157 N   0  0  0  0  0  0  0  0  0  0  0  0
   -9.7132  -11.0304  -17.2317 C   0  0  0  0  0  0  0  0  0  0  0  0
   -8.8390   -9.9649  -17.2021 C   0  0  0  0  0  0  0  0  0  0  0  0
   -9.8540  -11.8261  -18.3252 N   0  0  0  0  0  0  0  0  0  0  0  0
   -8.8946  -11.9519  -19.2996 C   0  0  0  0  0  0  0  0  0  0  0  0
   -7.8561  -11.3218  -19.1686 O   0  0  0  0  0  0  0  0  0  0  0  0
   -4.6454   -7.7300  -15.6421 Cl  0  0  0  0  0  0  0  0  0  0  0  0
   -7.0770   -2.6702  -15.8870 H   0  0  0  0  0  0  0  0  0  0  0  0
   -9.5226   -8.9357  -14.0999 H   0  0  0  0  0  0  0  0  0  0  0  0
  -11.0556  -10.8626  -14.2630 H   0  0  0  0  0  0  0  0  0  0  0  0
   -4.6115   -2.8791  -16.1784 H   0  0  0  0  0  0  0  0  0  0  0  0
   -3.5613   -5.1315  -16.0818 H   0  0  0  0  0  0  0  0  0  0  0  0
   -7.4434   -7.9760  -17.0260 H   0  0  0  0  0  0  0  0  0  0  0  0
   -8.2452   -9.7220  -18.0635 H   0  0  0  0  0  0  0  0  0  0  0  0
  -10.6827  -12.4023  -18.3505 H   0  0  0  0  0  0  0  0  0  0  0  0
   -9.1132  -12.8894  -20.4970 C   0  0  0  0  0  0  0  0  0  0  0  0
   -7.9889  -12.8778  -21.5522 C   0  0  0  0  0  0  0  0  0  0  0  0
   -8.0808  -11.8509  -22.6729 C   0  0  0  0  0  0  0  0  0  0  0  0
   -8.3424  -13.3208  -22.9745 C   0  0  0  0  0  0  0  0  0  0  0  0
  -10.0599  -12.6159  -20.9698 H   0  0  0  0  0  0  0  0  0  0  0  0
   -9.2155  -13.9117  -20.1406 H   0  0  0  0  0  0  0  0  0  0  0  0
   -6.9923  -13.1404  -21.1613 H   0  0  0  0  0  0  0  0  0  0  0  0
   -7.1552  -11.3782  -23.0138 H   0  0  0  0  0  0  0  0  0  0  0  0
   -8.9637  -11.2236  -22.7238 H   0  0  0  0  0  0  0  0  0  0  0  0
   -7.6047  -13.8515  -23.5853 H   0  0  0  0  0  0  0  0  0  0  0  0
   -9.3834  -13.6019  -23.1730 H   0  0  0  0  0  0  0  0  0  0  0  0
  1  5  1  0
  2  1  2  0
  2 11  1  0
  3  2  1  0
  3 21  1  0
  4  6  2  0
  5 12  2  0
  6 22  1  0
  7  6  1  0
  7 23  1  0
  8 20  1  0
  8  1  1  0
  9 10  1  0
  9  3  2  0
  9 24  1  0
 10  8  2  0
 10 25  1  0
 13  4  1  0
 13  5  1  0
 13 26  1  0
 14  7  2  0
 15 16  2  0
 15 14  1  0
 16  4  1  0
 16 27  1  0
 17 15  1  0
 17 28  1  0
 18 19  2  0
 18 17  1  0
 29 30  1  0
 31 32  1  0
 30 31  1  0
 32 30  1  0
 29 33  1  0
 29 34  1  0
 30 35  1  0
 31 36  1  0
 31 37  1  0
 32 38  1  0
 32 39  1  0
 18 29  1  0
M  END
$$$$