/home/anna/Documents/benchmark/test_fegrow/inputs/ligand.pdb
     RDKit          3D

 39 41  0  0  0  0  0  0  0  0999 V2000
   -6.8382   -5.8519  -15.1769 C   0  0  0  0  0  0  0  0  0  0  0  0
   -7.3713   -4.5557  -15.2606 C   0  0  0  0  0  0  0  0  0  0  0  0
   -6.5565   -3.5022  -15.6827 C   0  0  0  0  0  0  0  0  0  0  0  0
   -8.6959   -9.0059  -15.8745 C   0  0  0  0  0  0  0  0  0  0  0  0
   -7.6981   -6.9891  -14.8758 C   0  0  0  0  0  0  0  0  0  0  0  0
   -9.4937   -9.3587  -14.8079 C   0  0  0  0  0  0  0  0  0  0  0  0
  -10.3711  -10.4331  -14.9535 C   0  0  0  0  0  0  0  0  0  0  0  0
   -5.4831   -6.0638  -15.4841 C   0  0  0  0  0  0  0  0  0  0  0  0
   -5.2100   -3.7107  -15.9904 C   0  0  0  0  0  0  0  0  0  0  0  0
   -4.6738   -4.9937  -15.8740 C   0  0  0  0  0  0  0  0  0  0  0  0
   -9.0561   -4.2420  -14.9066 Cl  0  0  0  0  0  0  0  0  0  0  0  0
   -8.2897   -7.0612  -13.8048 O   0  0  0  0  0  0  0  0  0  0  0  0
   -7.8360   -7.9369  -15.8678 N   0  0  0  0  0  0  0  0  0  0  0  0
  -10.4563  -11.1506  -16.0855 N   0  0  0  0  0  0  0  0  0  0  0  0
   -9.6618  -10.8093  -17.0885 C   0  0  0  0  0  0  0  0  0  0  0  0
   -8.7791   -9.7494  -17.0250 C   0  0  0  0  0  0  0  0  0  0  0  0
   -9.7734  -11.5731  -18.2141 N   0  0  0  0  0  0  0  0  0  0  0  0
   -8.6509  -12.0455  -18.8580 C   0  0  0  0  0  0  0  0  0  0  0  0
   -7.5569  -11.7218  -18.4045 O   0  0  0  0  0  0  0  0  0  0  0  0
   -4.7910   -7.6634  -15.4114 Cl  0  0  0  0  0  0  0  0  0  0  0  0
   -6.9856   -2.5153  -15.7860 H   0  0  0  0  0  0  0  0  0  0  0  0
   -9.4567   -8.8060  -13.8794 H   0  0  0  0  0  0  0  0  0  0  0  0
  -11.0121  -10.6983  -14.1163 H   0  0  0  0  0  0  0  0  0  0  0  0
   -4.5893   -2.8844  -16.3278 H   0  0  0  0  0  0  0  0  0  0  0  0
   -3.6276   -5.1680  -16.1070 H   0  0  0  0  0  0  0  0  0  0  0  0
   -7.3594   -7.7428  -16.7404 H   0  0  0  0  0  0  0  0  0  0  0  0
   -8.1762   -9.5049  -17.8831 H   0  0  0  0  0  0  0  0  0  0  0  0
  -10.6388  -12.0931  -18.3072 H   0  0  0  0  0  0  0  0  0  0  0  0
   -8.7293  -12.9074  -20.0673 C   0  0  0  0  0  0  0  0  0  0  0  0
   -7.8623  -14.0019  -20.2527 C   0  0  0  0  0  0  0  0  0  0  0  0
   -7.9164  -14.8153  -21.3814 C   0  0  0  0  0  0  0  0  0  0  0  0
   -8.8088  -14.5113  -22.4075 C   0  0  0  0  0  0  0  0  0  0  0  0
   -9.6497  -13.4036  -22.2709 C   0  0  0  0  0  0  0  0  0  0  0  0
   -9.6332  -12.6314  -21.1034 C   0  0  0  0  0  0  0  0  0  0  0  0
   -7.1527  -14.2472  -19.4863 H   0  0  0  0  0  0  0  0  0  0  0  0
   -7.2485  -15.6672  -21.4392 H   0  0  0  0  0  0  0  0  0  0  0  0
   -8.8663  -15.1333  -23.2967 H   0  0  0  0  0  0  0  0  0  0  0  0
  -10.3385  -13.1602  -23.0733 H   0  0  0  0  0  0  0  0  0  0  0  0
  -10.3207  -11.8033  -21.0129 H   0  0  0  0  0  0  0  0  0  0  0  0
  1  5  1  0
  2  1  2  0
  2 11  1  0
  3  2  1  0
  3 21  1  0
  4  6  2  0
  5 12  2  0
  6 22  1  0
  7  6  1  0
  7 23  1  0
  8 20  1  0
  8  1  1  0
  9 10  1  0
  9  3  2  0
  9 24  1  0
 10  8  2  0
 10 25  1  0
 13  4  1  0
 13  5  1  0
 13 26  1  0
 14  7  2  0
 15 16  2  0
 15 14  1  0
 16  4  1  0
 16 27  1  0
 17 15  1  0
 17 28  1  0
 18 19  2  0
 18 17  1  0
 30 31  2  0
 31 32  1  0
 32 33  2  0
 33 34  1  0
 29 30  1  0
 29 34  2  0
 30 35  1  0
 31 36  1  0
 32 37  1  0
 33 38  1  0
 34 39  1  0
 18 29  1  0
M  END
$$$$